Hello apple. Stairway can't end. This-thing is  a Beach McCloud; Go away.
New line.

